   9
Foo
Si      -0.007761    0.030919    0.026218
 O       1.628070    0.132942    0.169616
 H       2.046257    0.559080   -0.820011
 O      -0.381734    0.642862   -1.391055
 H      -1.195922    0.377126   -1.899089
 O      -0.556278   -1.495658   -0.182684
 H      -0.398275   -2.084903    0.548801
 O      -0.675501    0.637140    1.407363
 H      -0.467668    1.603123    1.391099
