   96
Rhodium cation with nobornane and ligands
 P      0.396813     0.988135    -1.433935
 P     -0.409300     0.982873     1.450865
 C      2.178238     0.953941    -1.974923
 C      3.120097     1.070814    -0.759658
 C      4.596224     0.952367    -1.170005
 C      4.848039    -0.365116    -1.909226
 C      3.966055    -0.448704    -3.159107
 C      2.475143    -0.307716    -2.810142
 C     -0.587120     0.907468    -3.004415
 C     -2.103653     0.858661    -2.731884
 C     -2.873845     0.581965    -4.031515
 C     -2.555247     1.635966    -5.099784
 C     -1.042782     1.747306    -5.345986
 C     -0.245036     1.984450    -4.049157
 C      0.158088     2.677608    -0.688672
 C      0.286657     2.596260     0.841972
 C      0.476303     0.558447     3.025879
 C      1.916963     0.081227     2.764969
 C      2.546508    -0.452660     4.060511
 C      2.550409     0.625258     5.153510
 C      1.139366     1.182585     5.391204
 C      0.472441     1.668440     4.090247
 C     -2.159169     1.345002     1.969376
 C     -2.887509     0.036337     2.345973
 C     -4.350682     0.289148     2.742897
 C     -5.096058     1.031465     1.626801
 C     -4.392882     2.350745     1.288238
 C     -2.931503     2.112273     0.877868
Rh     -0.232596    -0.624456    -0.055987
 H      2.318096     1.844384    -2.610572
 H      2.957009     2.025392    -0.240887
 H      2.874133     0.272872    -0.042399
 H      5.224955     1.032735    -0.272554
 H      4.871578     1.798454    -1.816988
 H      5.904798    -0.465888    -2.191234
 H      4.630522    -1.209949    -1.238151
 H      4.256452     0.346944    -3.860255
 H      4.126753    -1.399796    -3.685482
 H      2.156547    -1.196346    -2.243744
 H      1.881720    -0.297108    -3.733602
 H     -0.299484    -0.075807    -3.416240
 H     -2.434724     1.821965    -2.314877
 H     -2.323115     0.091937    -1.972707
 H     -2.605917    -0.418677    -4.402879
 H     -3.953137     0.556733    -3.826184
 H     -2.948332     2.611408    -4.779133
 H     -3.073740     1.389036    -6.037185
 H     -0.830200     2.562053    -6.054526
 H     -0.686563     0.816187    -5.815133
 H      0.828805     1.985609    -4.272615
 H     -0.484740     2.976601    -3.643714
 H      0.876638     3.387443    -1.121664
 H     -0.847218     3.011828    -0.979395
 H      1.342818     2.609513     1.143488
 H     -0.200710     3.444626     1.342978
 H     -0.098644    -0.301814     3.411214
 H      2.517677     0.921692     2.387879
 H      1.926045    -0.681488     1.972539
 H      3.567166    -0.809511     3.865020
 H      1.974051    -1.327275     4.404130
 H      2.959327     0.217806     6.090133
 H      3.222288     1.443473     4.857495
 H      1.173208     2.016379     6.108465
 H      0.514336     0.396610     5.842453
 H      1.021391     2.538566     3.705959
 H     -0.546916     2.010086     4.304183
 H     -2.091671     1.985556     2.864249
 H     -2.361924    -0.483138     3.159167
 H     -2.863461    -0.633939     1.471658
 H     -4.387211     0.883270     3.667909
 H     -4.841404    -0.668411     2.969036
 H     -6.132077     1.230260     1.930597
 H     -5.143174     0.393812     0.730508
 H     -4.426296     3.015389     2.163740
 H     -4.919507     2.875705     0.479646
 H     -2.447389     3.076931     0.667573
 H     -2.905757     1.527999    -0.054039
 C     -0.466852    -2.856787    -0.934012
 C     -0.922734    -2.857740     0.560484
 C     -0.110952    -4.025160     1.178867
 C      1.367851    -3.610902     1.305633
 C      1.839608    -3.530763    -0.181349
 C      0.591864    -3.981815    -0.975032
 C     -0.054204    -5.005352    -0.013651
 H     -1.318658    -3.056452    -1.594960
 H     -2.004747    -3.011836     0.638006
 H     -0.556809    -4.403609     2.103150
 H      1.929124    -4.372754     1.859528
 H      1.488696    -2.662766     1.843489
 H      2.681107    -4.206124    -0.371299
 H      2.157061    -2.516583    -0.460738
 H      0.802171    -4.328245    -1.990826
 H      0.579558    -5.878502     0.180643
 H     -1.040448    -5.353096    -0.345033
 H     -0.725390    -1.933559     1.220101
 H      0.017325    -1.918246    -1.398537
